Circuit: * D:\Misc\TTGO-HiGrow\electronics\soil_current_analysis.asc

Limiting rise time of source v1 to 3.2e-005
Limiting fall time of source v1 to 3.2e-005
WARNING: Less than two connections to node NC_01.  This node is used by R3.
Direct Newton iteration for .op point succeeded.

Date: Tue Dec 29 17:28:58 2020
Total elapsed time: 0.121 seconds.

tnom = 27
temp = 27
method = modified trap
totiter = 3750
traniter = 3724
tranpoints = 1863
accept = 1635
rejected = 228
matrix size = 13
fillins = 4
solver = Normal
Matrix Compiler1: 666 bytes object code size  0.2/0.1/[0.1]
Matrix Compiler2: 1.15 KB object code size  0.1/0.2/[0.1]

